!- Windows Line endings 

Version,
    9.5;                      !- Version Identifier

SimulationControl,
    No,                       !- Do Zone Sizing Calculation
    No,                       !- Do System Sizing Calculation
    No,                       !- Do Plant Sizing Calculation
    Yes,                      !- Run Simulation for Sizing Periods
    Yes,                      !- Run Simulation for Weather File Run Periods
    No,                       !- Do HVAC Sizing Simulation for Sizing Periods
    1;                        !- Maximum Number of HVAC Sizing Simulation Passes

Building,
    Untitled,                 !- Name
    0,                        !- North Axis
    City,                     !- Terrain
    0.04,                     !- Loads Convergence Tolerance Value
    0.4,                      !- Temperature Convergence Tolerance Value
    FullInteriorAndExterior,    !- Solar Distribution
    25,                       !- Maximum Number of Warmup Days
    6;                        !- Minimum Number of Warmup Days

Timestep,
    4;                        !- Number of Timesteps per Hour

Site:Location,
    CHICAGO_IL_USA TMY2-94846,    !- Name
    41.78,                    !- Latitude
    -87.75,                   !- Longitude
    -6,                       !- Time Zone
    190;                      !- Elevation

RunPeriod,
    1,                        !- Name
    1,                        !- Begin Month
    1,                        !- Begin Day of Month
    ,                         !- Begin Year
    12,                       !- End Month
    31,                       !- End Day of Month
    ,                         !- End Year
    ,                         !- Day of Week for Start Day
    Yes,                      !- Use Weather File Holidays and Special Days
    Yes,                      !- Use Weather File Daylight Saving Period
    No,                       !- Apply Weekend Holiday Rule
    Yes,                      !- Use Weather File Rain Indicators
    Yes,                      !- Use Weather File Snow Indicators
    ;                         !- Treat Weather as Actual

RunPeriodControl:SpecialDays,
    New Years Day,            !- Name
    January 1,                !- Start Date
    1,                        !- Duration
    Holiday;                  !- Special Day Type

RunPeriodControl:SpecialDays,
    Veterans Day,             !- Name
    November 11,              !- Start Date
    1,                        !- Duration
    Holiday;                  !- Special Day Type

RunPeriodControl:SpecialDays,
    Christmas,                !- Name
    December 25,              !- Start Date
    1,                        !- Duration
    Holiday;                  !- Special Day Type

RunPeriodControl:SpecialDays,
    Independence Day,         !- Name
    July 4,                   !- Start Date
    1,                        !- Duration
    Holiday;                  !- Special Day Type

RunPeriodControl:SpecialDays,
    MLK Day,                  !- Name
    3rd Monday in January,    !- Start Date
    1,                        !- Duration
    Holiday;                  !- Special Day Type

RunPeriodControl:SpecialDays,
    Presidents Day,           !- Name
    3rd Monday in February,    !- Start Date
    1,                        !- Duration
    Holiday;                  !- Special Day Type

RunPeriodControl:SpecialDays,
    Memorial Day,             !- Name
    Last Monday in May,       !- Start Date
    1,                        !- Duration
    Holiday;                  !- Special Day Type

RunPeriodControl:SpecialDays,
    Labor Day,                !- Name
    1st Monday in September,    !- Start Date
    1,                        !- Duration
    Holiday;                  !- Special Day Type

RunPeriodControl:SpecialDays,
    Columbus Day,             !- Name
    2nd Monday in October,    !- Start Date
    1,                        !- Duration
    Holiday;                  !- Special Day Type

RunPeriodControl:SpecialDays,
    Thanksgiving,             !- Name
    4th Thursday in November,    !- Start Date
    1,                        !- Duration
    Holiday;                  !- Special Day Type

RunPeriodControl:DaylightSavingTime,
    2nd Sunday in March,      !- Start Date
    1st Sunday in November;    !- End Date

ScheduleTypeLimits,
    Any Number;               !- Name

ScheduleTypeLimits,
    Fraction,                 !- Name
    0,                        !- Lower Limit Value
    1,                        !- Upper Limit Value
    CONTINUOUS;               !- Numeric Type

ScheduleTypeLimits,
    Temperature,              !- Name
    -60,                      !- Lower Limit Value
    200,                      !- Upper Limit Value
    CONTINUOUS;               !- Numeric Type

ScheduleTypeLimits,
    On/Off,                   !- Name
    0,                        !- Lower Limit Value
    1,                        !- Upper Limit Value
    DISCRETE;                 !- Numeric Type

ScheduleTypeLimits,
    Control Type,             !- Name
    0,                        !- Lower Limit Value
    4,                        !- Upper Limit Value
    DISCRETE;                 !- Numeric Type

ScheduleTypeLimits,
    Humidity,                 !- Name
    10,                       !- Lower Limit Value
    90,                       !- Upper Limit Value
    CONTINUOUS;               !- Numeric Type

ScheduleTypeLimits,
    Number;                   !- Name

Schedule:Compact,
    Office Lights Schedule,    !- Name
    Fraction,                 !- Schedule Type Limits Name
    Through: 12/31,           !- Field 1
    For: Weekdays,            !- Field 2
    Until: 05:00,             !- Field 3
    0.05,                     !- Field 4
    Until: 07:00,             !- Field 5
    0.1,                      !- Field 6
    Until: 08:00,             !- Field 7
    0.3,                      !- Field 8
    Until: 17:00,             !- Field 9
    0.9,                      !- Field 10
    Until: 18:00,             !- Field 11
    0.5,                      !- Field 12
    Until: 20:00,             !- Field 13
    0.3,                      !- Field 14
    Until: 22:00,             !- Field 15
    0.2,                      !- Field 16
    Until: 23:00,             !- Field 17
    0.1,                      !- Field 18
    Until: 24:00,             !- Field 19
    0.05,                     !- Field 20
    For: SummerDesignDay,     !- Field 21
    Until: 24:00,             !- Field 22
    1.0,                      !- Field 23
    For: Saturday,            !- Field 24
    Until: 06:00,             !- Field 25
    0.05,                     !- Field 26
    Until: 08:00,             !- Field 27
    0.1,                      !- Field 28
    Until: 12:00,             !- Field 29
    0.3,                      !- Field 30
    Until: 17:00,             !- Field 31
    0.15,                     !- Field 32
    Until: 24:00,             !- Field 33
    0.05,                     !- Field 34
    For: WinterDesignDay,     !- Field 35
    Until: 24:00,             !- Field 36
    0.0,                      !- Field 37
    For: Sunday Holidays AllOtherDays,    !- Field 38
    Until: 24:00,             !- Field 39
    0.05;                     !- Field 40

Schedule:Compact,
    Office Equipment Schedule,    !- Name
    Fraction,                 !- Schedule Type Limits Name
    Through: 12/31,           !- Field 1
    For: Weekdays,            !- Field 2
    Until: 08:00,             !- Field 3
    0.40,                     !- Field 4
    Until: 12:00,             !- Field 5
    0.90,                     !- Field 6
    Until: 13:00,             !- Field 7
    0.80,                     !- Field 8
    Until: 17:00,             !- Field 9
    0.90,                     !- Field 10
    Until: 18:00,             !- Field 11
    0.50,                     !- Field 12
    Until: 24:00,             !- Field 13
    0.40,                     !- Field 14
    For: SummerDesignDay,     !- Field 15
    Until: 24:00,             !- Field 16
    1.0,                      !- Field 17
    For: Saturday,            !- Field 18
    Until: 06:00,             !- Field 19
    0.30,                     !- Field 20
    Until: 08:00,             !- Field 21
    0.4,                      !- Field 22
    Until: 12:00,             !- Field 23
    0.5,                      !- Field 24
    Until: 17:00,             !- Field 25
    0.35,                     !- Field 26
    Until: 24:00,             !- Field 27
    0.30,                     !- Field 28
    For: WinterDesignDay,     !- Field 29
    Until: 24:00,             !- Field 30
    0.0,                      !- Field 31
    For: Sunday Holidays AllOtherDays,    !- Field 32
    Until: 24:00,             !- Field 33
    0.30;                     !- Field 34

Schedule:Compact,
    Office Occupancy Schedule,    !- Name
    Fraction,                 !- Schedule Type Limits Name
    Through: 12/31,           !- Field 1
    For: Weekdays,            !- Field 2
    Until: 06:00,             !- Field 3
    0.0,                      !- Field 4
    Until: 07:00,             !- Field 5
    0.1,                      !- Field 6
    Until: 08:00,             !- Field 7
    0.2,                      !- Field 8
    Until: 12:00,             !- Field 9
    0.95,                     !- Field 10
    Until: 13:00,             !- Field 11
    0.5,                      !- Field 12
    Until: 17:00,             !- Field 13
    0.95,                     !- Field 14
    Until: 18:00,             !- Field 15
    0.3,                      !- Field 16
    Until: 20:00,             !- Field 17
    0.1,                      !- Field 18
    Until: 24:00,             !- Field 19
    0.05,                     !- Field 20
    For: SummerDesignDay,     !- Field 21
    Until: 06:00,             !- Field 22
    0.0,                      !- Field 23
    Until: 22:00,             !- Field 24
    1.0,                      !- Field 25
    Until: 24:00,             !- Field 26
    0.05,                     !- Field 27
    For: Saturday,            !- Field 28
    Until: 06:00,             !- Field 29
    0.0,                      !- Field 30
    Until: 08:00,             !- Field 31
    0.1,                      !- Field 32
    Until: 12:00,             !- Field 33
    0.3,                      !- Field 34
    Until: 17:00,             !- Field 35
    0.1,                      !- Field 36
    Until: 19:00,             !- Field 37
    0.0,                      !- Field 38
    Until: 24:00,             !- Field 39
    0.0,                      !- Field 40
    For: WinterDesignDay,     !- Field 41
    Until: 24:00,             !- Field 42
    0.0,                      !- Field 43
    For: Sunday Holidays AllOtherDays,    !- Field 44
    Until: 06:00,             !- Field 45
    0.0,                      !- Field 46
    Until: 18:00,             !- Field 47
    0.0,                      !- Field 48
    Until: 24:00,             !- Field 49
    0.0;                      !- Field 50

Schedule:Compact,
    Infiltration Schedule,    !- Name
    Fraction,                 !- Schedule Type Limits Name
    Through: 12/31,           !- Field 1
    For: Weekdays SummerDesignDay,    !- Field 2
    Until: 06:00,             !- Field 3
    1.0,                      !- Field 4
    Until: 22:00,             !- Field 5
    0.0,                      !- Field 6
    Until: 24:00,             !- Field 7
    1.0,                      !- Field 8
    For: Saturday WinterDesignDay,    !- Field 9
    Until: 06:00,             !- Field 10
    1.0,                      !- Field 11
    Until: 18:00,             !- Field 12
    0.0,                      !- Field 13
    Until: 24:00,             !- Field 14
    1.0,                      !- Field 15
    For: Sunday Holidays AllOtherDays,    !- Field 16
    Until: 24:00,             !- Field 17
    1.0;                      !- Field 18

Schedule:Compact,
    Infiltration Half On Schedule,    !- Name
    Fraction,                 !- Schedule Type Limits Name
    Through: 12/31,           !- Field 1
    For: Weekdays SummerDesignDay,    !- Field 2
    Until: 06:00,             !- Field 3
    1.0,                      !- Field 4
    Until: 22:00,             !- Field 5
    0.5,                      !- Field 6
    Until: 24:00,             !- Field 7
    1.0,                      !- Field 8
    For: Saturday WinterDesignDay,    !- Field 9
    Until: 06:00,             !- Field 10
    1.0,                      !- Field 11
    Until: 18:00,             !- Field 12
    0.5,                      !- Field 13
    Until: 24:00,             !- Field 14
    1.0,                      !- Field 15
    For: Sunday Holidays AllOtherDays,    !- Field 16
    Until: 24:00,             !- Field 17
    1.0;                      !- Field 18

Schedule:Compact,
    Infiltration Quarter On Schedule,    !- Name
    Fraction,                 !- Schedule Type Limits Name
    Through: 12/31,           !- Field 1
    For: Weekdays SummerDesignDay,    !- Field 2
    Until: 06:00,             !- Field 3
    1.0,                      !- Field 4
    Until: 22:00,             !- Field 5
    0.25,                     !- Field 6
    Until: 24:00,             !- Field 7
    1.0,                      !- Field 8
    For: Saturday WinterDesignDay,    !- Field 9
    Until: 06:00,             !- Field 10
    1.0,                      !- Field 11
    Until: 18:00,             !- Field 12
    0.25,                     !- Field 13
    Until: 24:00,             !- Field 14
    1.0,                      !- Field 15
    For: Sunday Holidays AllOtherDays,    !- Field 16
    Until: 24:00,             !- Field 17
    1.0;                      !- Field 18

Schedule:Compact,
    Hours of Operation Schedule,    !- Name
    On/Off,                   !- Schedule Type Limits Name
    Through: 12/31,           !- Field 1
    For: Weekdays SummerDesignDay,    !- Field 2
    Until: 06:00,             !- Field 3
    0.0,                      !- Field 4
    Until: 22:00,             !- Field 5
    1.0,                      !- Field 6
    Until: 24:00,             !- Field 7
    0.0,                      !- Field 8
    For: Saturday WinterDesignDay,    !- Field 9
    Until: 06:00,             !- Field 10
    0.0,                      !- Field 11
    Until: 18:00,             !- Field 12
    1.0,                      !- Field 13
    Until: 24:00,             !- Field 14
    0.0,                      !- Field 15
    For: Sunday Holidays AllOtherDays,    !- Field 16
    Until: 24:00,             !- Field 17
    0.0;                      !- Field 18

Schedule:Compact,
    Always On,                !- Name
    Fraction,                 !- Schedule Type Limits Name
    Through: 12/31,           !- Field 1
    For: AllDays,             !- Field 2
    Until: 24:00,             !- Field 3
    1.0;                      !- Field 4

Schedule:Compact,
    Always Off,               !- Name
    Fraction,                 !- Schedule Type Limits Name
    Through: 12/31,           !- Field 1
    For: AllDays,             !- Field 2
    Until: 24:00,             !- Field 3
    0.0;                      !- Field 4

Schedule:Compact,
    Heating Setpoint Schedule,    !- Name
    Temperature,              !- Schedule Type Limits Name
    Through: 12/31,           !- Field 1
    For: Weekdays,            !- Field 2
    Until: 05:00,             !- Field 3
    15.6,                     !- Field 4
    Until: 19:00,             !- Field 5
    21.0,                     !- Field 6
    Until: 24:00,             !- Field 7
    15.6,                     !- Field 8
    For SummerDesignDay,      !- Field 9
    Until: 24:00,             !- Field 10
    15.6,                     !- Field 11
    For: Saturday,            !- Field 12
    Until: 06:00,             !- Field 13
    15.6,                     !- Field 14
    Until: 17:00,             !- Field 15
    21.0,                     !- Field 16
    Until: 24:00,             !- Field 17
    15.6,                     !- Field 18
    For: WinterDesignDay,     !- Field 19
    Until: 24:00,             !- Field 20
    21.0,                     !- Field 21
    For: Sunday Holidays AllOtherDays,    !- Field 22
    Until: 24:00,             !- Field 23
    15.6;                     !- Field 24

Schedule:Compact,
    Cooling Setpoint Schedule,    !- Name
    Temperature,              !- Schedule Type Limits Name
    Through: 12/31,           !- Field 1
    For: Weekdays SummerDesignDay,    !- Field 2
    Until: 06:00,             !- Field 3
    30.0,                     !- Field 4
    Until: 22:00,             !- Field 5
    24.0,                     !- Field 6
    Until: 24:00,             !- Field 7
    30.0,                     !- Field 8
    For: Saturday,            !- Field 9
    Until: 06:00,             !- Field 10
    30.0,                     !- Field 11
    Until: 18:00,             !- Field 12
    24.0,                     !- Field 13
    Until: 24:00,             !- Field 14
    30.0,                     !- Field 15
    For WinterDesignDay,      !- Field 16
    Until: 24:00,             !- Field 17
    30.0,                     !- Field 18
    For: Sunday Holidays AllOtherDays,    !- Field 19
    Until: 24:00,             !- Field 20
    30.0;                     !- Field 21

Schedule:Compact,
    Office Activity Schedule,    !- Name
    Any Number,               !- Schedule Type Limits Name
    Through: 12/31,           !- Field 1
    For: AllDays,             !- Field 2
    Until: 24:00,             !- Field 3
    120.;                     !- Field 4

Schedule:Compact,
    Office Work Eff. Schedule,    !- Name
    Fraction,                 !- Schedule Type Limits Name
    Through: 12/31,           !- Field 1
    For: AllDays,             !- Field 2
    Until: 24:00,             !- Field 3
    0.0;                      !- Field 4

Schedule:Compact,
    Office Clothing Schedule,    !- Name
    Any Number,               !- Schedule Type Limits Name
    Through: 04/30,           !- Field 1
    For: AllDays,             !- Field 2
    Until: 24:00,             !- Field 3
    1.0,                      !- Field 4
    Through: 09/30,           !- Field 5
    For: AllDays,             !- Field 6
    Until: 24:00,             !- Field 7
    0.5,                      !- Field 8
    Through: 12/31,           !- Field 9
    For: AllDays,             !- Field 10
    Until: 24:00,             !- Field 11
    1.0;                      !- Field 12

Material,
    F08 Metal surface,        !- Name
    Smooth,                   !- Roughness
    0.0008,                   !- Thickness
    45.28,                    !- Conductivity
    7824,                     !- Density
    500;                      !- Specific Heat

Material,
    I01 25mm insulation board,    !- Name
    MediumRough,              !- Roughness
    0.0254,                   !- Thickness
    0.03,                     !- Conductivity
    43,                       !- Density
    1210;                     !- Specific Heat

Material,
    I02 50mm insulation board,    !- Name
    MediumRough,              !- Roughness
    0.0508,                   !- Thickness
    0.03,                     !- Conductivity
    43,                       !- Density
    1210;                     !- Specific Heat

Material,
    G01a 19mm gypsum board,    !- Name
    MediumSmooth,             !- Roughness
    0.019,                    !- Thickness
    0.16,                     !- Conductivity
    800,                      !- Density
    1090;                     !- Specific Heat

Material,
    M11 100mm lightweight concrete,    !- Name
    MediumRough,              !- Roughness
    0.1016,                   !- Thickness
    0.53,                     !- Conductivity
    1280,                     !- Density
    840;                      !- Specific Heat

Material,
    F16 Acoustic tile,        !- Name
    MediumSmooth,             !- Roughness
    0.0191,                   !- Thickness
    0.06,                     !- Conductivity
    368,                      !- Density
    590;                      !- Specific Heat

Material,
    M01 100mm brick,          !- Name
    MediumRough,              !- Roughness
    0.1016,                   !- Thickness
    0.89,                     !- Conductivity
    1920,                     !- Density
    790;                      !- Specific Heat

Material,
    M15 200mm heavyweight concrete,    !- Name
    MediumRough,              !- Roughness
    0.2032,                   !- Thickness
    1.95,                     !- Conductivity
    2240,                     !- Density
    900;                      !- Specific Heat

Material,
    M05 200mm concrete block,    !- Name
    MediumRough,              !- Roughness
    0.2032,                   !- Thickness
    1.11,                     !- Conductivity
    800,                      !- Density
    920;                      !- Specific Heat

Material,
    G05 25mm wood,            !- Name
    MediumSmooth,             !- Roughness
    0.0254,                   !- Thickness
    0.15,                     !- Conductivity
    608,                      !- Density
    1630;                     !- Specific Heat

Material,
    AirGap,                   !- Name
    Smooth,                   !- Roughness
    0.03,                     !- Thickness
    0.667,                    !- Conductivity
    1.28,                     !- Density
    1000,                     !- Specific Heat
    0.9,                      !- Thermal Absorptance
    0.7,                      !- Solar Absorptance
    0.7;                      !- Visible Absorptance

Material,
    F08Metalsurface,          !- Name
    Smooth,                   !- Roughness
    0.0008,                   !- Thickness
    45.28,                    !- Conductivity
    7824,                     !- Density
    500,                      !- Specific Heat
    0.9;                      !- Thermal Absorptance

Material,
    I0125mminsulationboard,    !- Name
    MediumRough,              !- Roughness
    0.0254,                   !- Thickness
    0.03,                     !- Conductivity
    43,                       !- Density
    1210,                     !- Specific Heat
    0.9;                      !- Thermal Absorptance

Material,
    I0250mminsulationboard,    !- Name
    MediumRough,              !- Roughness
    0.0508,                   !- Thickness
    0.03,                     !- Conductivity
    43,                       !- Density
    1210,                     !- Specific Heat
    0.9;                      !- Thermal Absorptance

Material,
    G01a19mmgypsumboard,      !- Name
    MediumSmooth,             !- Roughness
    0.019,                    !- Thickness
    0.16,                     !- Conductivity
    800,                      !- Density
    1090,                     !- Specific Heat
    0.9;                      !- Thermal Absorptance

Material,
    M11100mmlightweightconcrete,    !- Name
    MediumRough,              !- Roughness
    0.1016,                   !- Thickness
    0.53,                     !- Conductivity
    1280,                     !- Density
    840,                      !- Specific Heat
    0.9;                      !- Thermal Absorptance

Material,
    F16Acoustictile,          !- Name
    MediumSmooth,             !- Roughness
    0.0191,                   !- Thickness
    0.06,                     !- Conductivity
    368,                      !- Density
    590,                      !- Specific Heat
    0.9;                      !- Thermal Absorptance

Material,
    M01100mmbrick,            !- Name
    MediumRough,              !- Roughness
    0.1016,                   !- Thickness
    0.89,                     !- Conductivity
    1920,                     !- Density
    790,                      !- Specific Heat
    0.9;                      !- Thermal Absorptance

Material,
    M15200mmheavyweightconcrete,    !- Name
    MediumRough,              !- Roughness
    0.2032,                   !- Thickness
    1.95,                     !- Conductivity
    2240,                     !- Density
    900,                      !- Specific Heat
    0.9;                      !- Thermal Absorptance

Material,
    M05200mmconcreteblock,    !- Name
    MediumRough,              !- Roughness
    0.2032,                   !- Thickness
    1.11,                     !- Conductivity
    800,                      !- Density
    920,                      !- Specific Heat
    0.9;                      !- Thermal Absorptance

Material,
    G0525mmwood,              !- Name
    MediumSmooth,             !- Roughness
    0.0254,                   !- Thickness
    0.15,                     !- Conductivity
    608,                      !- Density
    1630,                     !- Specific Heat
    0.9;                      !- Thermal Absorptance

Material,
    IsolaLR-5cm,              !- Name
    Rough,                    !- Roughness
    0.05,                     !- Thickness
    0.045,                    !- Conductivity
    35,                       !- Density
    840,                      !- Specific Heat
    0.9;                      !- Thermal Absorptance

Material,
    IsolaLR-6cm,              !- Name
    Rough,                    !- Roughness
    0.06,                     !- Thickness
    0.045,                    !- Conductivity
    35,                       !- Density
    840,                      !- Specific Heat
    0.9,                      !- Thermal Absorptance
    0.7,                      !- Solar Absorptance
    0.7;                      !- Visible Absorptance

Material,
    IsolaLR-8cm,              !- Name
    Rough,                    !- Roughness
    0.08,                     !- Thickness
    0.045,                    !- Conductivity
    35,                       !- Density
    840,                      !- Specific Heat
    0.9,                      !- Thermal Absorptance
    0.7,                      !- Solar Absorptance
    0.7;                      !- Visible Absorptance

Material,
    IsolaLR-10cm,             !- Name
    Rough,                    !- Roughness
    0.1,                      !- Thickness
    0.045,                    !- Conductivity
    35,                       !- Density
    840,                      !- Specific Heat
    0.9,                      !- Thermal Absorptance
    0.7,                      !- Solar Absorptance
    0.7;                      !- Visible Absorptance

Material,
    Reboco-0.3cm,             !- Name
    MediumRough,              !- Roughness
    0.003,                    !- Thickness
    1.8,                      !- Conductivity
    2000,                     !- Density
    1050,                     !- Specific Heat
    0.9,                      !- Thermal Absorptance
    0.7,                      !- Solar Absorptance
    0.7;                      !- Visible Absorptance

Material,
    Reboco-1cm,               !- Name
    MediumRough,              !- Roughness
    0.01,                     !- Thickness
    1.8,                      !- Conductivity
    2000,                     !- Density
    1050,                     !- Specific Heat
    0.9,                      !- Thermal Absorptance
    0.7,                      !- Solar Absorptance
    0.7;                      !- Visible Absorptance

Material,
    Reboco-1.5cm,             !- Name
    MediumRough,              !- Roughness
    0.015,                    !- Thickness
    1.8,                      !- Conductivity
    2000,                     !- Density
    1050,                     !- Specific Heat
    0.9,                      !- Thermal Absorptance
    0.7,                      !- Solar Absorptance
    0.7;                      !- Visible Absorptance

Material,
    Reboco-2cm,               !- Name
    MediumRough,              !- Roughness
    0.02,                     !- Thickness
    1.8,                      !- Conductivity
    2000,                     !- Density
    1050,                     !- Specific Heat
    0.9,                      !- Thermal Absorptance
    0.7,                      !- Solar Absorptance
    0.7;                      !- Visible Absorptance

Material,
    Reboco-2.5cm,             !- Name
    MediumRough,              !- Roughness
    0.025,                    !- Thickness
    1.8,                      !- Conductivity
    2000,                     !- Density
    1050,                     !- Specific Heat
    0.9,                      !- Thermal Absorptance
    0.7,                      !- Solar Absorptance
    0.7;                      !- Visible Absorptance

Material,
    Betao-5cm,                !- Name
    Smooth,                   !- Roughness
    0.05,                     !- Thickness
    2.2,                      !- Conductivity
    2300,                     !- Density
    900,                      !- Specific Heat
    0.9,                      !- Thermal Absorptance
    0.7,                      !- Solar Absorptance
    0.7;                      !- Visible Absorptance

Material,
    Betao-7cm,                !- Name
    Smooth,                   !- Roughness
    0.07,                     !- Thickness
    2.2,                      !- Conductivity
    2300,                     !- Density
    900,                      !- Specific Heat
    0.9,                      !- Thermal Absorptance
    0.7,                      !- Solar Absorptance
    0.7;                      !- Visible Absorptance

Material,
    Betao-10cm,               !- Name
    Smooth,                   !- Roughness
    0.1,                      !- Thickness
    2.2,                      !- Conductivity
    2300,                     !- Density
    900,                      !- Specific Heat
    0.9,                      !- Thermal Absorptance
    1,                        !- Solar Absorptance
    1;                        !- Visible Absorptance

Material,
    Betao-15cm,               !- Name
    Smooth,                   !- Roughness